19

C        1.30451545       0.09501476      -0.21052215
O       -0.08850969       0.21797715      -0.05339447
C       -0.46111901       0.63897306       1.23832020
C       -1.98170099       0.71400249       1.29730628
C       -2.48091396       1.16990214       2.67923920
C       -3.99419663       1.27643069       2.74433516
O       -4.67817886       0.57890645       3.46060237
C       -4.59447231       2.28365629       1.87947860
C       -5.08508415       3.12351756       1.17000964
H        1.73092252      -0.64541925       0.48500519
H        1.49053861      -0.23564744      -1.23515421
H        1.82160883       1.05418739      -0.04720859
H       -0.08040567      -0.06478712       1.99947250
H       -0.02016825       1.62601073       1.46647582
H       -2.33154135       1.40475275       0.52331454
H       -2.39352561      -0.27239271       1.05758501
H       -2.17589268       0.46850214       3.46116954
H       -2.05711892       2.15561435       2.91374642
H       -5.53390267       3.85922085       0.54745883
